Version 4.1
SHEET 1 1436 1308
WIRE 240 160 16 160
WIRE 384 160 240 160
WIRE 720 160 656 160
WIRE 896 160 816 160
WIRE 240 224 240 160
WIRE 384 224 384 160
WIRE 16 320 16 160
WIRE 240 336 240 304
WIRE 384 336 384 288
WIRE 384 336 240 336
WIRE 528 336 384 336
WIRE 656 336 608 336
WIRE 800 336 736 336
WIRE 992 336 800 336
WIRE 800 416 800 336
WIRE 992 432 992 336
WIRE 240 448 240 336
WIRE 800 496 800 480
WIRE 16 592 16 400
WIRE 240 592 240 512
WIRE 800 592 800 576
WIRE 992 592 992 512
WIRE 80 720 0 720
WIRE 464 720 400 720
WIRE 560 720 528 720
WIRE 800 720 736 720
WIRE 80 752 80 720
WIRE 560 768 560 720
WIRE 800 768 800 720
WIRE 80 896 80 832
WIRE 560 896 560 848
WIRE 800 896 800 848
FLAG 192 288 0
FLAG 240 592 0
FLAG 800 592 0
FLAG 16 592 0
FLAG 992 592 0
FLAG 800 896 0
FLAG 736 720 a
FLAG 560 896 0
FLAG 400 720 b
FLAG 80 896 0
FLAG 0 720 g
FLAG 192 240 g
FLAG 992 336 vout
FLAG 896 160 vout
FLAG 816 224 0
FLAG 720 224 0
FLAG 656 160 b
SYMBOL sw 240 320 M180
SYMATTR InstName S1
SYMBOL diode 256 512 R180
WINDOW 0 24 64 Left 2
WINDOW 3 24 0 Left 2
SYMATTR InstName D1
SYMBOL ind 624 320 R90
WINDOW 0 5 56 VBottom 2
WINDOW 3 32 56 VTop 2
SYMATTR InstName L1
SYMATTR Value 75u
SYMBOL diode 400 288 R180
WINDOW 0 24 64 Left 2
WINDOW 3 24 0 Left 2
SYMATTR InstName D2
SYMBOL cap 784 416 R0
SYMATTR InstName C1
SYMATTR Value 220u
SYMBOL voltage 16 304 R0
SYMATTR InstName V1
SYMATTR Value 10
SYMBOL res 752 320 R90
WINDOW 0 0 56 VBottom 2
WINDOW 3 32 56 VTop 2
SYMATTR InstName R1
SYMATTR Value 0.1
SYMBOL res 816 592 R180
WINDOW 0 36 76 Left 2
WINDOW 3 36 40 Left 2
SYMATTR InstName R2
SYMATTR Value 70m
SYMBOL res 976 416 R0
SYMATTR InstName R3
SYMATTR Value 2.5
SYMBOL voltage 800 752 R0
WINDOW 123 0 0 Left 0
WINDOW 39 0 0 Left 0
SYMATTR InstName V2
SYMATTR Value PULSE(0 1 0 {0.5*Ts} {0.5*Ts} 1n {Ts})
SYMBOL voltage 560 752 R0
WINDOW 123 0 0 Left 0
WINDOW 39 0 0 Left 0
SYMATTR InstName V3
SYMATTR Value 0.5
SYMBOL bv 80 736 R0
SYMATTR InstName B1
SYMATTR Value V=if(v(b)>v(a),12,0)
SYMBOL fra 464 720 R90
WINDOW 0 -16 -32 VBottom 2
SYMATTR InstName @1
SYMATTR SpiceLine delay=20m fstart=10 fend=100k oct=4 fcoarse=3k flist=1k 1.2k 1.5k pp0=0.1 pp1=0.1 f0=5k f1=50k tavgmin=10m tsettle=5m
SYMBOL fraprobe 768 240 R0
SYMATTR InstName &1
TEXT 48 88 Left 2 !.model SW SW(Ron=1m Roff=1Meg Vt=5 Vh=0)
TEXT -432 264 Left 2 !.param fs=100k Ts=1/fs
TEXT -408 368 Left 2 ;.tran {500*Ts} uic
TEXT -344 456 Left 2 !.fra
